[TITLE]
;;Project Title/Notes
---- SAMPLE MODEL ONLY ----
---- FOR GIT/HUB DEMONSTRATION PURPOSES ONLY ----
G. Ewing. I removed some sections and did not supply the forcing data. It will not run.

[OPTIONS]
;;Option             
FLOW_UNITS         
INFILTRATION         H
FLOW_ROUTING         DY
LINK_OFFSETS         ELEV
MIN_SLOPE        
ALLOW_PONDING      
SKIP_STEADY_STATE 

START_DATE           06/22/2018
START_TIME           0
REPORT_START_DATE    07/01/2018
REPORT_START_TIME    00:00:00
END_DATE             07/
END_TIME             00:00:00
SWEEP_START          01/01
SWEEP_END            12/31
DRY_DAYS             0
REPORT_STEP          00:15:00
WET_STEP             0
DRY_STEP             0
ROUTING_STEP         10
RULE_STEP            00:00:20

INERTIAL_DAMPING     NONE
NORMAL_FLOW_LIMITED  BOTH
FORCE_MAIN_EQUATION  H-W
VARIABLE_STEP        0.9
LENGTHENING_STEP     0
MIN_SURFAREA         12.566
MAX_TRIALS           12
HEAD_TOLERANCE       0.001
SYS_FLOW_TOL         5
LAT_FLOW_TOL         5
MINIMUM_STEP         0.1
THREADS              5
IGNORE_QUALITY       YES

[SUBCATCHMENTS]
;;Name           Rain Gage        Outlet           Area     %Imperv  Width    %Slope   CurbLen  SnowPack        
;;-------------- ---------------- ---------------- -------- -------- -------- -------- -------- ----------------
;*      jk      name     ngto      width     area     dcia     slope   impman   prvman   impstr   prvstr    suct     hdcon   imdmax
1101             DesignStorm      10_L             964.503  29.8     6481.791 3.77     0                        
1102             DesignStorm      11_L             1849.871 21.4     8984.246 2.89     0                        
1103             DesignStorm      12_L             1827.869 23.8     8911.222 3.49     0                        
1104             DesignStorm      13_L             1441.496 31.4     7922.75  3.22     0                        
1105             DesignStorm      14_L             1153.299 25.2     7086.937 3.53     0                        
1106             DesignStorm      15_L             806.034  39.3     5925.315 3        0                        
1107             DesignStorm      16_L             1434.845 17.2     7972.079 2.35     0                        
1108             DesignStorm      17_L             1333.438 1.2      7611.491 2.69     0                        
1109             DesignStorm      18_L             2026.483 32.5     10848.923 1.76    0                        
1110             DesignStorm      19_L             1045.861 32.5     6750.093 3.67     0                        
1111             DesignStorm      20_L             1544.707 15.6     8216.934 2.71     0                        
1112             DesignStorm      21_L             1069.529 23.3     6820.71  2.66     0                        
1113             DesignStorm      22_L             1511.031 1.1      8272.41  4.9      0                        
1114             DesignStorm      23_L             2587.88  2.8      10640.133 4.08    0                        
1115             DesignStorm      24_L             2152.312 1.6      9677.5   3.58     0                        
1116             DesignStorm      25_L             1365.653 3.2      7713.816 1.84     0                        
11R-9_RTK        DesignStorm      11R-9_D          35.8     50       15594.48 1        0        KDTW            
1206             DesignStorm      26_L             208.695  18.8     3015.124 3.87     0                        
1207             DesignStorm      27_L             152.869  24.9     2580.76  4.2      0                        
1215             DesignStorm      28_L             962.295  44.2     4740.987 2.57     0                        
1216             DesignStorm      29_L             960.535  33.1     6371.992 2.72     0                        
1217             DesignStorm      30_L             1757.128 45.1     8400.429 2.64     0                        
1218             DesignStorm      31_L             1387.187 48.1     7352.412 2.88     0                        
1219             DesignStorm      32_L             1872.005 37.9     9030.189 2.62     0                        
1220             DesignStorm      33_L             1500.115 34.5     8115.585 2.9      0                        
1221             DesignStorm      34_L             1624.353 38.9     8650.785 2.6      0                        
1222             DesignStorm      35_L             1376.505 30.6     7742     2.67     0                        
1223             DesignStorm      36_L             1433.96  23.4     7828.724 2.62     0                        
1224             DesignStorm      37_L             1674.492 27.6     8541.838 3.57     0                        
1225             DesignStorm      38_L             3469.668 41.4     12294.438 2.73    0                        
1226             DesignStorm      39_L             1314.629 31       7568.448 3.53     0                        
1227             DesignStorm      40_L             1817.563 37.2     8898.993 3.32     0                        
1228             DesignStorm      41_L             1798.891 27.8     8852.369 3.09     0                        
1229             DesignStorm      42_L             1547.175 25.7     8208.978 3.98     0                        
1230             DesignStorm      43_L             1040.011 33.9     6730.706 3.03     0                        
1231             DesignStorm      44_L             3311.975 13.2     12065.551 4.9     0                        
1232             DesignStorm      45_L             422.369  45.6     2099.589 2.51     0                        
1244             DesignStorm      46_L             977.514  48.6     6173.029 2.41     0                        
1245             DesignStorm      47_L             746.783  27.8     5703.943 2.68     0                        
1246             DesignStorm      48_L             150.233  29.4     4289.492 3.33     0                        
1247             DesignStorm      49_L             420.453  27.8     3744.01  2.65     0                        
;*       JK     NAMW     NGTO     WW1    WAREA       WW3   WSLPE      WW5      WW6     WSTOR     WSTOR    SUCT    HDCON    SDMAX
2103             DesignStorm      10_MD            1600.912 27.4     8243.318 6.11     0                        
2104             DesignStorm      20_MD            979.46   27.9     6531.9   5.86     0                        
2105             DesignStorm      30_MD            831.724  36.6     6019.149 5.65     0                        
2106             DesignStorm      40_MD            912.416  36       6306.955 4.57     0                        
2107             DesignStorm      50_MD            953.819  33.9     6445.805 5.07     0                        
2108             DesignStorm      60_MD            1346.655 32.5     7609.431 4.99     0                        
2109             DesignStorm      70_MD            757.136  30.8     5742.834 4.02     0                        
2110             DesignStorm      80_MD            1869.211 44.1     8995.342 5.18     0                        
2111             DesignStorm      90_MD            739.668  25.8     5676.23  4.76     0                        
2112             DesignStorm      100_MD           1851.276 38.8     8980.076 4.04     0                        
2113             DesignStorm      110_MD           2316.229 29.4     10412.784 2.85    0                        
2114             DesignStorm      120_MD           2047.786 1.8      9467.607 4.62     0                        
2115             DesignStorm      130_MD           2519.956 38.8     10165.007 4       0                        
2116             DesignStorm      140_MD           1385.616 1.7      7296.449 4.24     0                        
2117             DesignStorm      150_MD           1937.84  15.8     9078.035 4.49     0                        
2118             DesignStorm      160_MD           2144.426 7.9      9814.735 4.44     0                        
2119             DesignStorm      170_MD           2217.027 7.8      9669.664 6.1      0                        
2120             DesignStorm      180_MD           2133.236 5.5      9438.854 4.04     0                        
2121             DesignStorm      190_MD           2447.408 15.9     10242.915 4.68    0                        
2122             DesignStorm      900_MD           2546.688 35.4     10730.329 4.43    0                        
2123             DesignStorm      910_MD           2897.079 40.5     11233.793 4.53    0                        
21286_OMID_RTK   DesignStorm      21286_OMID_D     3129     90       1362992.4 1       0                        
2201             DesignStorm      920_MD           1037.036 43.8     6721.056 3.45     0                        
2202             DesignStorm      930_MD           1531.88  42.9     8168.79  4.92     0                        
2205             DesignStorm      940_MD           1440.393 25.3     7661.403 3.7      0                        
2206             DesignStorm      950_MD           984.713  52.8     6522.223 2.68     0                        
2207             DesignStorm      960_MD           987.403  51.6     6558.321 5.59     0                        
2208             DesignStorm      970_MD           1585.271 32.9     8243.794 2.69     0                        
2209             DesignStorm      980_MD           776.305  30       5815.158 3.13     0                        
2210             DesignStorm      990_MD           867.124  59       6145.872 3.78     0                        
2214             DesignStorm      300_MD           1783.542 45.2     8814.299 4.42     0                        
2215             DesignStorm      310_MD           853.078  40.6     6095.842 2.42     0                        
2218             DesignStorm      320_MD           1735.153 38.5     8693.881 3.04     0                        
2219             DesignStorm      330_MD           991.766  41.1     5985.403 3.01     0                        
2220             DesignStorm      340_MD           597.591  43.1     5102.06  3.21     0                        
2221             DesignStorm      350_MD           2511.09  46.2     10458.616 3.1     0                        
2222             DesignStorm      360_MD           855.999  35.5     6106.338 2.94     0                        
2223             DesignStorm      370_MD           1188.183 37.5     7194.242 3.07     0                        
2224             DesignStorm      380_MD           1767.984 48.1     8775.692 3.35     0                        
2225             DesignStorm      390_MD           312.703  61.7     3400.185 4.07     0                        
2226             DesignStorm      400_MD           837.503  51.7     6040.028 4.04     0                        
2227             DesignStorm      410_MD           1433.587 29.8     7902.353 2.55     0                        
23016_OMID_RTK   DesignStorm      23016_OMID_D     1407     90       612889.2 1        0                        
23116_OMID_RTK   DesignStorm      23116_OMID_D     7607     90       3313609.2 1       0                        
2317             DesignStorm      420_MD           1037.426 47.9     6722.32  2.62     0                        
2318             DesignStorm      430_MD           1381.59  40.9     7757.71  2.5      0                        
2319             DesignStorm      440_MD           453.344  51.8     4443.766 3.6      0                        
2320             DesignStorm      450_MD           1410.757 45.9     7695.781 2.56     0                        
2321             DesignStorm      460_MD           807.83   36.5     5932.038 2.92     0                        
23211_OMID_RTK   DesignStorm      23211_OMID_D     814      90       354578.4 1        0                        
2322             DesignStorm      470_MD           1738.231 76.6     8451.222 2.53     0                        
2323             DesignStorm      480_MD           640.059  44.3     5280.206 2.69     0                        
2324             DesignStorm      490_MD           1085.949 45       6877.789 2.77     0                        
2325             DesignStorm      500_MD           911.025  43.7     6299.526 2.21     0                        
2326             DesignStorm      510_MD           1314.66  21.6     5872.517 2.77     0                        
23486_OMID_RTK   DesignStorm      23486_OMID_D     2747     90       1196593.2 1       0                        
23555_OMID_RTK   DesignStorm      23555_OMID_D     79060    90       34438536 1        0                        
24036_OMID_RTK   DesignStorm      24036_OMID_D     3084     90       1343390.4 1       0                        
24120_OMID_RTK   DesignStorm      24120_OMID_D     5257     90       2289949.2 1       0                        
29-95_RTK        DesignStorm      29-95_D          658.5    0        208600.128 1      0        KDTW            
;*      jk      name     ngto     width    area     dcia     slope   impman   prvman   impstr   prvstr    suct     hdcon   imdmax
3110             DesignStorm      10_U             21.395   36.8     956.431  2.5      0                        
3111             DesignStorm      11_U             1018.837 32.5     6655.864 3.18     0                        
3112             DesignStorm      12_U             1088.57  30.8     6887.441 3.61     0                        
3113             DesignStorm      13_U             872.362  30.2     6163.142 6.6      0                        
3114             DesignStorm      14_U             1255.491 30.8     7396.713 4.51     0                        
3115             DesignStorm      15_U             2485.637 29.1     10406.256 5.34    0                        
3116             DesignStorm      16_U             1070.186 38.4     6827.093 4.5      0                        
3117             DesignStorm      17_U             1823.007 45.5     8911.222 4.6      0                        
3118             DesignStorm      18_U             1266.978 42.2     7301.879 4.96     0                        
3119             DesignStorm      19_U             2248.778 40.8     10039.813 5.48    0                        
3120             DesignStorm      20_U             561.483  37       4943.396 2.91     0                        
3123             DesignStorm      21_U             1412.475 60.6     7834.286 2.82     0                        
3124             DesignStorm      22_U             289.028  36.9     3548.076 3.02     0                        
3202             DesignStorm      23_U             255.805  28.6     3339.365 3.06     0                        
3203             DesignStorm      24_U             547.543  58.2     4885.783 3.16     0                        
3204             DesignStorm      25_U             1285.347 34.9     7481.617 2.85     0                        
3205             DesignStorm      26_U             888.8    32.8     6222.929 2.56     0                        
3206             DesignStorm      27_U             1510.277 34.3     8110.216 3.14     0                        
3207             DesignStorm      28_U             962.746  33.6     6476.749 2.96     0                        
3208             DesignStorm      29_U             1572.273 56.8     8280.304 2.65     0                        
3209             DesignStorm      30_U             1783.495 25.1     8815.387 3.23     0                        
3210             DesignStorm      31_U             1205.169 42.2     7244.984 2.97     0                        
3211             DesignStorm      32_U             1292.93  40.3     7504.87  4.44     0                        
3212             DesignStorm      33_U             1137.048 47.8     7037.593 3.13     0                        
3213             DesignStorm      34_U             1632.46  40.9     8434.067 4.49     0                        
3214             DesignStorm      35_U             1012.64  37.8     6642.761 4.52     0                        
3215             DesignStorm      36_U             1064.255 35.3     6807.925 3.65     0                        
3216             DesignStorm      37_U             1090.146 50.3     6912.693 4.82     0                        
3217             DesignStorm      38_U             1181.132 29.9     7172.472 3.96     0                        
3218             DesignStorm      39_U             1520.878 24.5     8139.703 3.14     0                        
3219             DesignStorm      40_U             2260.302 30.9     9928.559 3.04     0                        
3220             DesignStorm      41_U             1128.508 29.5     7031.401 4.5      0                        
3300_RTK         DesignStorm      3300_D           246.1    25       107201.16 1       0                        
3529_RTK         DesignStorm      3529_D           27.68    25       12057.408 1       0        KDTW            
3553_RTK         DesignStorm      3553_D           39.23    25       17088.588 1       0        KDTW            
4000_OAK_RTK     DesignStorm      4000_OAK_D       5.7      25       2482.92  1        0        KDTW            
;*       jk     name      ngto   width    area     dcia    slope    impman    prvman   impstr   prvstr    suct    hdcon   imdmax
4105             DesignStorm      10_MN            1795.623 21.4     8844.074 3.27     0                        
4106             DesignStorm      11_MN            712.786  53.2     5572.136 3.87     0                        
4107             DesignStorm      12_MN            1219.043 30.9     7261.71  3.75     0                        
4108             DesignStorm      13_MN            1172.69  41.3     7143.78  4.39     0                        
4109             DesignStorm      14_MN            1259.901 25.5     7397.626 4.22     0                        
4110             DesignStorm      15_MN            1795.469 16.9     8843.68  4.21     0                        
4111             DesignStorm      16_MN            1025.1   33.9     6682.317 3.82     0                        
4112             DesignStorm      17_MN            1284.868 22.3     7481.239 3.3      0                        
4113             DesignStorm      18_MN            1783.961 20       8808.219 5.05     0                        
4114             DesignStorm      19_MN            1984.179 19.8     9295.017 4.39     0                        
4115             DesignStorm      20_MN            2855.532 19.8     11152.906 5.08    0                        
4116             DesignStorm      21_MN            2393.472 17.4     10210.778 5.65    0                        
4117             DesignStorm      22_MN            2076.25  19.7     9510.117 4.43     0                        
4118             DesignStorm      23_MN            2895.68  18.1     11118.601 5.97    0                        
4119             DesignStorm      24_MN            2079.818 33.3     9518.266 5.73     0                        
4120             DesignStorm      25_MN            2232.18  25.6     9860.762 4.32     0                        
4121             DesignStorm      26_MN            1922.786 16.5     9151.823 3.83     0                        
4122             DesignStorm      27_MN            2158.893 28.4     9446.189 5.86     0                        
4123             DesignStorm      28_MN            1478.923 24.4     8026.344 6.66     0                        
4124             DesignStorm      29_MN            2926.351 20.5     11280.518 4.06    0                        
4125             DesignStorm      30_MN            2859.849 34.6     11042.295 5.25    0                        
4126             DesignStorm      31_MN            1585.252 19.9     7903.538 5.48     0                        
4127             DesignStorm      32_MN            2331.969 19.4     10096.123 5.49    0                        
4128             DesignStorm      33_MN            2318.909 12       9887.915 4.75     0                        
4129             DesignStorm      34_MN            4710.116 50.5     13424.553 4.46    0                        
4130             DesignStorm      35_MN            775.966  29.8     5813.885 4.56     0                        
4131             DesignStorm      36_MN            1151.054 12.2     7081.003 3.74     0                        
4132             DesignStorm      37_MN            497.367  13.5     4654.615 3.99     0                        
4221             DesignStorm      38_MN            234.846  53.4     3198.379 4.06     0                        
4230             DesignStorm      39_MN            681.912  27.8     5450.138 3.22     0                        
4231             DesignStorm      40_MN            65.849   83.1     1693.643 3.11     0                        
4232             DesignStorm      41_MN            66.302   30       1699.42  2.1      0                        
4233             DesignStorm      42_MN            485.943  46.3     4600.868 2.63     0                        
4234             DesignStorm      43_MN            7.997    41       589.953  2.49     0                        
4235             DesignStorm      44_MN            863.513  42.2     6133.066 2.84     0                        
4236             DesignStorm      45_MN            243.267  28.4     3255.212 2.51     0                        
4237             DesignStorm      46_MN            194.211  62.3     2908.571 3.56     0                        
4238             DesignStorm      47_MN            259.659  82.9     3363.087 4.33     0                        
4239             DesignStorm      48_MN            1832.945 52.4     9582.123 2.92     0                        
4240             DesignStorm      49_MN            5.135    56.6     473.179  2.26     0                        
4241             DesignStorm      50_MN            845.561  34.5     6068.914 2.99     0                        
4242             DesignStorm      51_MN            134.583  61.3     2421.22  3.26     0                        
4243             DesignStorm      52_MN            322.053  68.1     3745.464 2.92     0                        
4244             DesignStorm      53_MN            1082.182 61.2     7097.133 3.2      0                        
4245             DesignStorm      54_MN            2067.997 70.7     9496.297 3.1      0                        
4246             DesignStorm      55_MN            1256.684 49.7     7449.731 3.12     0                        
4247             DesignStorm      56_MN            962.878  33.5     6476.346 3.37     0                        
4248             DesignStorm      57_MN            1571.514 46.8     8273.752 3.51     0                        
43_RTK           DesignStorm      43_D             3.8      25       1655.28  1        0        KDTW            
4333             DesignStorm      58_MN            1674.405 54.3     8540.232 2.66     0                        
4334             DesignStorm      59_MN            141.872  33.9     2485.932 3.25     0                        
4335             DesignStorm      60_MN            739.372  27.7     5675.041 2.67     0                        
4336             DesignStorm      61_MN            816.442  31.7     5963.567 2.43     0                        
4337             DesignStorm      62_MN            772.381  44.2     5800.42  3.87     0                        
4405             DesignStorm      63_MN            618.369  64.8     5189.925 2.29     0                        
4412             DesignStorm      64_MN            357.587  44.1     3946.668 2.41     0                        
4413             DesignStorm      65_MN            1109.444 54.6     6951.683 2.66     0                        
4414             DesignStorm      66_MN            1947.997 74.4     9211.624 2.12     0                        
4416             DesignStorm      67_MN            553.556  40.4     4910.462 2.05     0                        
5879_RTK         DesignStorm      5879_D           410      50       178596   1        0        KDTW            
8MilePS          DesignStorm      SOT132006_D      2060     0        1246687.2 1       0        KDTW            
9MD-10_RTK       DesignStorm      9MD-10_D         290.6    50       126585.36 1       0        KDTW            
9MD-12_RTK       DesignStorm      9MD-12_D         19.7     50       8581.32  1        0        KDTW            
9MD-16_RTK       DesignStorm      9MD-16_D         45.5     50       19819.8  1        0        KDTW            
9MD-2_RTK        DesignStorm      9MD-2_D          8.8      50       3833.28  1        0        KDTW            
9MD-21_RTK       DesignStorm      9MD-21_D         14.5     50       6316.2   1        0        KDTW            
9MD-22_RTK       DesignStorm      9MD-22_D         10.9     50       4748.04  1        0        KDTW            
9MD-24-2_RTK     DesignStorm      9MD-24-2_D       15.3     50       6664.68  1        0        KDTW            
9MD-29_RTK       DesignStorm      9MD-29_D         227      50       98881.2  1        0        KDTW            
9MD-30_RTK       DesignStorm      9MD-30_D         35.6     50       15507.36 1        0        KDTW            
9MD-31_RTK       DesignStorm      9MD-31_D         194.4    50       84680.64 1        0        KDTW            
9MD-32_RTK       DesignStorm      9MD-32_D         26.9     50       11717.64 1        0        KDTW            
9MD-33_RTK       DesignStorm      9MD-33_D         84.2     50       36677.52 1        0        KDTW            
9MD-34_RTK       DesignStorm      9MD-34_D         1.8      50       784.08   1        0        KDTW            
9MD-34A_RTK      DesignStorm      9MD-34A_D        76       50       33105.6  1        0        KDTW            
9MD-34B_RTK      DesignStorm      9MD-34B_D        4.9      50       2134.44  1        0        KDTW            
9MD-35_RTK       DesignStorm      9MD-35_D         18.4     50       8015.04  1        0        KDTW            
9MD-35A_RTK      DesignStorm      9MD-35A_D        18.9     50       8232.84  1        0        KDTW            
9MD-35B_RTK      DesignStorm      9MD-35B_D        19.6     50       8537.76  1        0        KDTW            
9MD-36_RTK       DesignStorm      9MD-36_D         70.6     50       30753.36 1        0        KDTW            
9MD-36A_RTK      DesignStorm      9MD-36A_D        20.3     50       8842.68  1        0        KDTW            
9MD-37_RTK       DesignStorm      9MD-37_D         18.7     50       8145.72  1        0        KDTW            
9MD-38A_RTK      DesignStorm      9MD-38A_D        19.1     50       8319.96  1        0        KDTW            
9MD-38B_RTK      DesignStorm      9MD-38B_D        16.3     50       7100.28  1        0        KDTW            
9MD-38C_RTK      DesignStorm      9MD-38C_D        15.8     50       6882.48  1        0        KDTW            
9MD-39_RTK       DesignStorm      9MD-39_D         170.9    50       74444.04 1        0        KDTW            
9MD-39A_RTK      DesignStorm      9MD-39A_D        17       50       7405.2   1        0        KDTW            
9MD-40_RTK       DesignStorm      9MD-40_D         20.7     50       9016.92  1        0        KDTW            
9MD-41_RTK       DesignStorm      9MD-41_D         34.2     50       14897.52 1        0        KDTW            
9MD-42A_RTK      DesignStorm      9MD-42A_D        20.6     50       8973.36  1        0        KDTW            
9MD-43_RTK       DesignStorm      9MD-43_D         19       50       8276.4   1        0        KDTW            
9MD-44_RTK       DesignStorm      9MD-44_D         13.3     50       5793.48  1        0        KDTW            
9MD-45_RTK       DesignStorm      9MD-45_D         32.2     50       14026.32 1        0        KDTW            
9MD-46_RTK       DesignStorm      9MD-46_D         11.7     50       5096.52  1        0        KDTW            
9MD-47_RTK       DesignStorm      9MD-47_D         4.5      50       1960.2   1        0        KDTW            
9MD-48_RTK       DesignStorm      9MD-48_D         279.4    50       121706.64 1       0        KDTW            
9MD-49_RTK       DesignStorm      9MD-49_D         8.1      50       3528.36  1        0        KDTW            
9MD-50_RTK       DesignStorm      9MD-50_D         50.7     50       22084.92 1        0        KDTW            
9MD-51_RTK       DesignStorm      9MD-51_D         29.1     50       12675.96 1        0        KDTW            
9MD-52_RTK       DesignStorm      9MD-52_D         43.2     50       18817.92 1        0        KDTW            
9MD-53_RTK       DesignStorm      9MD-53_D         54.4     50       23696.64 1        0        KDTW            
9MD-7_RTK        DesignStorm      9MD-7_D          4.3      50       1873.08  1        0        KDTW            
9MD-9_RTK        DesignStorm      9MD-9_D          4.7      50       2047.32  1        0        KDTW            
BABYCREEKPOND    DesignStorm      SDF_BabyCreekInfluent 26.335609 19.5 1070   1.8      0        KDTW            
BC-S-2_001       DesignStorm      epSMH19288       27.2     29.3     3949.44  0.5      0        KDTW            
BC-S-2_002       DesignStorm      epSMH39355       6.2      52.8     771.634  0.5      0        KDTW            
BC-S-2_003       DesignStorm      epSMH19077       31       63.8     1500.4   0.5      0        KDTW            
BC-S-2_004       DesignStorm      epSMH47778       30.8     59.2     1073.318 0.5      0        KDTW            
BC-S-2_005       DesignStorm      epSMH19302       31.1     56.8     2376.695 0.5      0        KDTW            
BC-S-2_006       DesignStorm      SMH40844/54226   9.4      32       409.464  0.5      0        KDTW            
BC-S-2_007       DesignStorm      SFIT3294         16.7     1.4      1454.904 0.5      0        KDTW            
BC-S-2_008       DesignStorm      SMH27271         27.1     9.3      2360.952 0.5      0        KDTW            